Version 4
SHEET 1 1096 680
WIRE 288 -48 240 -48
WIRE 464 -32 400 -32
WIRE 288 -16 240 -16
WIRE 464 16 464 -32
WIRE 528 16 464 16
WIRE 528 48 480 48
WIRE 288 80 240 80
WIRE 480 96 480 48
WIRE 480 96 400 96
WIRE 288 112 240 112
WIRE 640 160 640 32
WIRE 688 160 640 160
WIRE 896 176 800 176
WIRE 688 192 640 192
WIRE 288 224 240 224
WIRE 640 240 640 192
WIRE 640 240 400 240
WIRE 288 256 240 256
FLAG -304 32 0
FLAG -304 192 0
FLAG -304 352 0
FLAG -304 -48 A
FLAG -304 112 B
FLAG -304 272 C
FLAG 240 -48 A
FLAG 240 -16 B
FLAG 240 80 B
FLAG 240 112 C
FLAG 240 224 C
FLAG 240 256 A
FLAG 896 176 F
SYMBOL voltage -304 -64 R0
WINDOW 123 0 0 Left 0
WINDOW 39 0 0 Left 0
SYMATTR InstName V1
SYMATTR Value PULSE(5 0 0 1p 1p 1u 2u)
SYMBOL voltage -304 96 R0
WINDOW 123 0 0 Left 0
WINDOW 39 0 0 Left 0
SYMATTR InstName V2
SYMATTR Value PULSE(5 0 0 1p 1p 2u 4u)
SYMBOL voltage -304 256 R0
WINDOW 123 0 0 Left 0
WINDOW 39 0 0 Left 0
SYMATTR InstName V3
SYMATTR Value PULSE(5 0 0 1p 1p 4u 8u)
SYMBOL 74hct08 336 -96 R0
SYMATTR InstName U1
SYMBOL 74hct08 336 32 R0
SYMATTR InstName U2
SYMBOL 74hct08 336 176 R0
SYMATTR InstName U3
SYMBOL 74hct32 576 -32 R0
SYMATTR InstName U4
SYMBOL 74hct32 736 112 R0
SYMATTR InstName U5
TEXT 528 -128 Left 2 !.INCLUDE 74hct.lib
TEXT -336 376 Left 2 !.tran 8u
TEXT 424 360 Left 2 ;Anantha Sai Satwik Vysyaraju
