Version 4
SHEET 1 2636 1820
WIRE 1824 -32 1776 -32
WIRE 48 -16 0 -16
WIRE 2000 -16 1936 -16
WIRE 224 0 160 0
WIRE 1824 0 1776 0
WIRE 48 16 0 16
WIRE 2000 32 2000 -16
WIRE 2064 32 2000 32
WIRE 224 48 224 0
WIRE 288 48 224 48
WIRE 2064 64 2016 64
WIRE 288 80 240 80
WIRE 48 112 0 112
WIRE 2016 112 2016 64
WIRE 2016 112 1936 112
WIRE 240 128 240 80
WIRE 240 128 160 128
WIRE 48 144 0 144
WIRE 2176 176 2176 48
WIRE 2224 176 2176 176
WIRE 400 192 400 64
WIRE 448 192 400 192
WIRE 2432 192 2336 192
WIRE 656 208 560 208
WIRE 2224 208 2176 208
WIRE 448 224 400 224
WIRE 1824 240 1776 240
WIRE 48 256 0 256
WIRE 2176 256 2176 208
WIRE 2176 256 1936 256
WIRE 400 272 400 224
WIRE 400 272 160 272
WIRE 1824 272 1776 272
WIRE 48 288 0 288
WIRE 976 448 880 448
WIRE 1200 464 1088 464
WIRE 80 480 -16 480
WIRE 976 480 880 480
WIRE 384 496 192 496
WIRE 880 496 880 480
WIRE 1200 496 1184 496
WIRE 80 512 -16 512
WIRE 1312 512 1312 480
WIRE 1360 512 1360 496
WIRE 1360 512 1312 512
WIRE -16 528 -16 512
WIRE 1360 528 1360 512
WIRE 384 560 384 496
WIRE 976 576 880 576
WIRE 1472 576 1472 512
WIRE 1520 576 1472 576
WIRE 384 592 256 592
WIRE 1184 592 1184 496
WIRE 1184 592 1088 592
WIRE 1648 592 1632 592
WIRE 80 608 -16 608
WIRE 976 608 880 608
WIRE 1520 608 1280 608
WIRE 256 624 256 592
WIRE 256 624 192 624
WIRE 880 624 880 608
WIRE 80 640 -16 640
WIRE -16 656 -16 640
WIRE 976 704 880 704
WIRE 1280 720 1280 608
WIRE 1280 720 1088 720
WIRE 80 736 -16 736
WIRE 976 736 880 736
WIRE 384 752 384 624
WIRE 384 752 192 752
WIRE 880 752 880 736
WIRE 80 768 -16 768
WIRE -16 784 -16 768
WIRE 976 848 880 848
WIRE 1200 864 1088 864
WIRE 976 880 880 880
WIRE 880 896 880 880
WIRE 1200 896 1184 896
WIRE 1312 912 1312 880
WIRE 1360 912 1312 912
WIRE 976 976 880 976
WIRE 1472 976 1472 912
WIRE 1520 976 1472 976
WIRE 1184 992 1184 896
WIRE 1184 992 1088 992
WIRE 1648 992 1632 992
WIRE 976 1008 880 1008
WIRE 1520 1008 1280 1008
WIRE 880 1024 880 1008
WIRE 976 1104 880 1104
WIRE 1280 1120 1280 1008
WIRE 1280 1120 1088 1120
WIRE 976 1136 880 1136
WIRE 880 1152 880 1136
FLAG -544 64 0
FLAG -544 224 0
FLAG -544 384 0
FLAG -544 -16 A
FLAG -544 144 B
FLAG -544 304 C
FLAG 0 -16 A
FLAG 0 16 B
FLAG 0 112 B
FLAG 0 144 C
FLAG 0 256 C
FLAG 0 288 A
FLAG 656 208 F1
FLAG -16 480 A
FLAG -16 528 B
FLAG -16 608 B
FLAG -16 656 C
FLAG -16 736 C
FLAG -16 784 A
FLAG 496 592 F2
FLAG 1648 592 F3
FLAG 880 448 A
FLAG 880 496 B
FLAG 880 576 B
FLAG 880 624 C
FLAG 880 704 C
FLAG 880 752 A
FLAG 1648 992 F4
FLAG 880 848 A
FLAG 880 896 B
FLAG 880 976 B
FLAG 880 1024 C
FLAG 880 1104 C
FLAG 880 1152 A
FLAG 1776 -32 A
FLAG 1936 112 B
FLAG 1776 0 C
FLAG 1776 240 C
FLAG 1776 272 A
FLAG 2432 192 F5
SYMBOL voltage -544 -32 R0
WINDOW 123 0 0 Left 0
WINDOW 39 0 0 Left 0
SYMATTR InstName V1
SYMATTR Value PULSE(5 0 0 1p 1p 1u 2u)
SYMBOL voltage -544 128 R0
WINDOW 123 0 0 Left 0
WINDOW 39 0 0 Left 0
SYMATTR InstName V2
SYMATTR Value PULSE(5 0 0 1p 1p 2u 4u)
SYMBOL voltage -544 288 R0
WINDOW 123 0 0 Left 0
WINDOW 39 0 0 Left 0
SYMATTR InstName V3
SYMATTR Value PULSE(5 0 0 1p 1p 4u 8u)
SYMBOL 74hct08 96 -64 R0
SYMATTR InstName U1
SYMBOL 74hct08 96 64 R0
SYMATTR InstName U2
SYMBOL 74hct08 96 208 R0
SYMATTR InstName U3
SYMBOL 74hct32 336 0 R0
SYMATTR InstName U4
SYMBOL 74hct32 496 144 R0
SYMATTR InstName U5
SYMBOL 74hct00 128 432 R0
SYMATTR InstName U6
SYMBOL 74hct00 128 560 R0
SYMATTR InstName U7
SYMBOL 74hct00 128 688 R0
SYMATTR InstName U8
SYMBOL 74hct10 432 512 R0
SYMATTR InstName U9
SYMBOL 74hct00 1248 416 R0
SYMATTR InstName U10
SYMBOL 74hct00 1568 528 R0
SYMATTR InstName U11
SYMBOL 74hct00 1024 400 R0
SYMATTR InstName U13
SYMBOL 74hct00 1024 528 R0
SYMATTR InstName U14
SYMBOL 74hct00 1024 656 R0
SYMATTR InstName U15
SYMBOL 74hct00 1408 448 R0
SYMATTR InstName U12
SYMBOL 74hct00 1248 816 R0
SYMATTR InstName U16
SYMBOL 74hct00 1568 928 R0
SYMATTR InstName U17
SYMBOL 74hct00 1024 800 R0
SYMATTR InstName U18
SYMBOL 74hct00 1024 928 R0
SYMATTR InstName U19
SYMBOL 74hct00 1024 1056 R0
SYMATTR InstName U20
SYMBOL 74hct04 1408 848 R0
SYMATTR InstName U21
SYMBOL 74hct08 1872 192 R0
SYMATTR InstName U22
SYMBOL 74hct32 2272 128 R0
SYMATTR InstName U23
SYMBOL 74hct32 1872 -80 R0
SYMATTR InstName U24
SYMBOL 74hct08 2112 -16 R0
SYMATTR InstName U25
TEXT 288 -96 Left 2 !.INCLUDE 74hct.lib
TEXT -568 448 Left 2 !.tran 8u
TEXT 848 112 Left 2 ;Anantha Sai Satwik Vysyaraju
TEXT 936 152 Left 2 ;2019A3PS1323H
TEXT 1552 464 Left 2 ;using NAND
TEXT 1584 848 Left 2 ;using NOT
TEXT 568 88 Left 2 ;AOI
TEXT 392 440 Left 2 ;2i and 3i NAND
