Version 4
SHEET 1 1744 680
WIRE 128 48 32 48
WIRE 432 64 240 64
WIRE 128 80 32 80
WIRE 32 96 32 80
WIRE 432 128 432 64
WIRE 432 160 304 160
WIRE 128 176 32 176
WIRE 304 192 304 160
WIRE 304 192 240 192
WIRE 128 208 32 208
WIRE 32 224 32 208
WIRE 128 304 32 304
WIRE 432 320 432 192
WIRE 432 320 240 320
WIRE 128 336 32 336
WIRE 32 352 32 336
FLAG -384 16 A
FLAG -384 144 B
FLAG -384 272 C
FLAG 32 48 A
FLAG 32 96 B
FLAG 32 176 B
FLAG 32 224 C
FLAG 32 304 C
FLAG 32 352 A
FLAG -384 96 0
FLAG -384 224 0
FLAG -384 352 0
FLAG 544 160 F
SYMBOL 74hct00 176 0 R0
SYMATTR InstName U1
SYMBOL 74hct00 176 128 R0
SYMATTR InstName U2
SYMBOL 74hct00 176 256 R0
SYMATTR InstName U3
SYMBOL voltage -384 0 R0
WINDOW 123 0 0 Left 0
WINDOW 39 0 0 Left 0
SYMATTR InstName V1
SYMATTR Value PULSE(5 0 0 1p 1p 1u 2u)
SYMBOL voltage -384 128 R0
WINDOW 123 0 0 Left 0
WINDOW 39 0 0 Left 0
SYMATTR InstName V2
SYMATTR Value PULSE(5 0 0 1p 1p 2u 4u)
SYMBOL voltage -384 256 R0
WINDOW 123 0 0 Left 0
WINDOW 39 0 0 Left 0
SYMATTR InstName V3
SYMATTR Value PULSE(5 0 0 1p 1p 4u 8u)
SYMBOL 74hct10 480 80 R0
SYMATTR InstName U7
TEXT 512 16 Left 2 !.INCLUDE 74hct.lib
TEXT -304 416 Left 2 !.tran 8u
TEXT 600 424 Left 2 ;Anantha Sai Satwik Vysyaraju
