Version 4
SHEET 1 1248 680
WIRE 608 16 560 16
WIRE 784 32 720 32
WIRE 608 48 560 48
WIRE 784 80 784 32
WIRE 848 80 784 80
WIRE 848 112 800 112
WIRE 800 160 800 112
WIRE 800 160 720 160
WIRE 960 224 960 96
WIRE 1008 224 960 224
WIRE 1216 240 1120 240
WIRE 1008 256 960 256
WIRE 608 288 560 288
WIRE 960 304 960 256
WIRE 960 304 720 304
WIRE 608 320 560 320
FLAG 16 48 0
FLAG 16 208 0
FLAG 16 368 0
FLAG 16 -32 A
FLAG 16 128 B
FLAG 16 288 C
FLAG 560 16 A
FLAG 720 160 B
FLAG 560 48 C
FLAG 560 288 C
FLAG 560 320 A
FLAG 1216 240 F
SYMBOL voltage 16 -48 R0
WINDOW 123 0 0 Left 0
WINDOW 39 0 0 Left 0
SYMATTR InstName V1
SYMATTR Value PULSE(5 0 0 1p 1p 1u 2u)
SYMBOL voltage 16 112 R0
WINDOW 123 0 0 Left 0
WINDOW 39 0 0 Left 0
SYMATTR InstName V2
SYMATTR Value PULSE(5 0 0 1p 1p 2u 4u)
SYMBOL voltage 16 272 R0
WINDOW 123 0 0 Left 0
WINDOW 39 0 0 Left 0
SYMATTR InstName V3
SYMATTR Value PULSE(5 0 0 1p 1p 4u 8u)
SYMBOL 74hct08 656 240 R0
SYMATTR InstName U3
SYMBOL 74hct32 1056 176 R0
SYMATTR InstName U5
SYMBOL 74hct32 656 -32 R0
SYMATTR InstName U1
SYMBOL 74hct08 896 32 R0
SYMATTR InstName U2
TEXT -16 392 Left 2 !.tran 8u
TEXT 848 -64 Left 2 !.INCLUDE 74hct.lib
TEXT 744 424 Left 2 ;Anantha Sai Satwik Vysyaraju
