Version 4
SHEET 1 880 796
WIRE -192 -16 -288 -16
WIRE 32 0 -80 0
WIRE -192 16 -288 16
WIRE -288 32 -288 16
WIRE 32 32 16 32
WIRE 144 48 144 16
WIRE 192 48 144 48
WIRE -192 112 -288 112
WIRE 304 112 304 48
WIRE 352 112 304 112
WIRE 16 128 16 32
WIRE 16 128 -80 128
WIRE 480 128 464 128
WIRE -192 144 -288 144
WIRE 352 144 112 144
WIRE -288 160 -288 144
WIRE -192 240 -288 240
WIRE 112 256 112 144
WIRE 112 256 -80 256
WIRE -192 272 -288 272
WIRE -288 288 -288 272
WIRE -176 432 -272 432
WIRE 48 448 -64 448
WIRE -176 464 -272 464
WIRE -272 480 -272 464
WIRE 48 480 32 480
WIRE 160 496 160 464
WIRE 208 496 208 480
WIRE 208 496 160 496
WIRE 208 512 208 496
WIRE -176 560 -272 560
WIRE 320 560 320 496
WIRE 368 560 320 560
WIRE 32 576 32 480
WIRE 32 576 -64 576
WIRE 496 576 480 576
WIRE -176 592 -272 592
WIRE 368 592 128 592
WIRE -272 608 -272 592
WIRE -176 688 -272 688
WIRE 128 704 128 592
WIRE 128 704 -64 704
WIRE -176 720 -272 720
WIRE -272 736 -272 720
FLAG 480 128 F
FLAG -288 -16 A
FLAG -288 32 B
FLAG -288 112 B
FLAG -288 160 C
FLAG -288 240 C
FLAG -288 288 A
FLAG -688 -80 A
FLAG -688 48 B
FLAG -688 176 C
FLAG -688 0 0
FLAG -688 128 0
FLAG -688 256 0
FLAG 496 576 F1
FLAG -272 432 A
FLAG -272 480 B
FLAG -272 560 B
FLAG -272 608 C
FLAG -272 688 C
FLAG -272 736 A
SYMBOL 74hct00 80 -48 R0
SYMATTR InstName U1
SYMBOL 74hct00 400 64 R0
SYMATTR InstName U2
SYMBOL 74hct04 240 -16 R0
SYMATTR InstName U3
SYMBOL 74hct00 -144 -64 R0
SYMATTR InstName U4
SYMBOL 74hct00 -144 64 R0
SYMATTR InstName U5
SYMBOL 74hct00 -144 192 R0
SYMATTR InstName U6
SYMBOL voltage -688 -96 R0
WINDOW 123 0 0 Left 0
WINDOW 39 0 0 Left 0
SYMATTR InstName V1
SYMATTR Value PULSE(5 0 0 1p 1p 1u 2u)
SYMBOL voltage -688 32 R0
WINDOW 123 0 0 Left 0
WINDOW 39 0 0 Left 0
SYMATTR InstName V2
SYMATTR Value PULSE(5 0 0 1p 1p 2u 4u)
SYMBOL voltage -688 160 R0
WINDOW 123 0 0 Left 0
WINDOW 39 0 0 Left 0
SYMATTR InstName V3
SYMATTR Value PULSE(5 0 0 1p 1p 4u 8u)
SYMBOL 74hct00 96 400 R0
SYMATTR InstName U7
SYMBOL 74hct00 416 512 R0
SYMATTR InstName U8
SYMBOL 74hct00 -128 384 R0
SYMATTR InstName U10
SYMBOL 74hct00 -128 512 R0
SYMATTR InstName U11
SYMBOL 74hct00 -128 640 R0
SYMATTR InstName U12
SYMBOL 74hct00 256 432 R0
SYMATTR InstName U9
TEXT 336 -160 Left 2 !.INCLUDE 74hct.lib
TEXT 344 304 Left 2 ;Anantha Sai Satwik Vysyaraju
TEXT -608 320 Left 2 !.tran 8u
