Version 4
SHEET 1 880 900
WIRE -1648 -176 -1664 -176
WIRE -1616 -176 -1648 -176
WIRE -1376 -160 -1504 -160
WIRE -1280 -160 -1376 -160
WIRE -1616 -144 -1664 -144
WIRE -1280 -144 -1280 -160
WIRE -1264 -144 -1280 -144
WIRE -1232 -144 -1264 -144
WIRE -912 -128 -1120 -128
WIRE -1232 -112 -1312 -112
WIRE -1648 -80 -1648 -176
WIRE -1488 -80 -1648 -80
WIRE -1616 -48 -1616 -144
WIRE -1520 -48 -1616 -48
WIRE -1264 -48 -1264 -144
WIRE -1200 -48 -1264 -48
WIRE -1072 -32 -1088 -32
WIRE -1232 -16 -1232 -112
WIRE -1200 -16 -1232 -16
WIRE -1072 -16 -1072 -32
WIRE -976 -16 -1072 -16
WIRE -976 0 -976 -16
WIRE -800 16 -864 16
WIRE -768 16 -800 16
WIRE -512 16 -576 16
WIRE -1488 32 -1488 -80
WIRE -1424 32 -1488 32
WIRE -976 32 -1072 32
WIRE -1312 48 -1312 -112
WIRE -1264 48 -1312 48
WIRE -1072 48 -1072 32
WIRE -1072 48 -1264 48
WIRE -1520 64 -1520 -48
WIRE -1424 64 -1520 64
WIRE -768 160 -768 48
WIRE -768 160 -1008 160
WIRE -1312 224 -1312 48
WIRE -512 224 -512 16
WIRE -512 224 -1312 224
WIRE -672 256 -672 160
WIRE -1008 320 -1008 160
WIRE -672 352 -672 336
WIRE -1008 368 -1008 320
FLAG -1840 -96 0
FLAG -1888 160 0
FLAG -1840 -176 A
FLAG -1888 80 B
FLAG -1664 -176 A
FLAG -1664 -144 B
FLAG -1264 48 Cout1
FLAG -1376 -160 S1
FLAG -1072 -32 Cout2
FLAG -912 -128 sum
FLAG -1760 288 0
FLAG -1760 208 Cin
FLAG -800 16 Cout
FLAG -1008 448 0
FLAG -1008 320 clk
FLAG -672 352 0
SYMBOL 74hct86 -1568 -224 R0
SYMATTR InstName U5
SYMBOL voltage -1840 -192 R0
WINDOW 3 75 -72 VRight 2
WINDOW 123 0 0 Left 0
WINDOW 39 0 0 Left 0
SYMATTR Value PULSE(5 0 0 1p 1p 1u 2u)
SYMATTR InstName V2
SYMBOL voltage -1888 64 R0
WINDOW 3 75 -72 VRight 2
WINDOW 123 0 0 Left 0
WINDOW 39 0 0 Left 0
SYMATTR Value PULSE(5 0 0 1p 1p 2u 4u)
SYMATTR InstName V3
SYMBOL 74hct86 -1184 -192 R0
SYMATTR InstName U6
SYMBOL voltage -1760 192 R0
WINDOW 3 75 -72 VRight 2
WINDOW 123 0 0 Left 0
WINDOW 39 0 0 Left 0
SYMATTR Value PULSE(5 0 0 1p 1p 4u 8u)
SYMATTR InstName V4
SYMBOL 74hct08 -1152 -96 R0
SYMATTR InstName U7
SYMBOL 74hct08 -1376 -16 R0
SYMATTR InstName U8
SYMBOL 74hct32 -928 -48 R0
SYMATTR InstName U9
SYMBOL voltage -1008 352 R0
WINDOW 3 75 -72 VRight 2
WINDOW 123 0 0 Left 0
WINDOW 39 0 0 Left 0
SYMATTR Value PULSE(5 0 0 1p 1p 1u 2u)
SYMATTR InstName V1
SYMBOL 74hct74 -672 -64 R0
SYMATTR InstName U1
SYMBOL voltage -672 240 R0
WINDOW 123 0 0 Left 0
WINDOW 39 0 0 Left 0
SYMATTR InstName V5
SYMATTR Value PULSE(5 0 0 1p 1p 1u 17u)
TEXT -800 -448 Left 2 !.include 74hct.lib
TEXT -1600 504 Left 2 !.tran 17u
TEXT -1424 -304 Left 2 ;GENERAL
