Version 4
SHEET 1 1380 680
WIRE 448 0 176 0
WIRE 576 16 560 16
WIRE 448 32 416 32
WIRE -224 96 -352 96
WIRE -144 96 -224 96
WIRE 176 96 176 0
WIRE 176 96 48 96
WIRE 224 96 176 96
WIRE 576 96 576 16
WIRE 576 96 560 96
WIRE 608 96 576 96
WIRE 48 112 48 96
WIRE 416 112 416 32
WIRE 864 112 800 112
WIRE -224 192 -224 96
WIRE -144 192 -224 192
WIRE 176 192 176 96
WIRE 224 192 176 192
WIRE 560 192 560 96
WIRE 608 192 560 192
WIRE -352 224 -352 96
WIRE -272 224 -352 224
WIRE -352 256 -352 224
WIRE -272 256 -272 224
WIRE -48 256 -272 256
WIRE 320 256 -48 256
WIRE 704 256 320 256
WIRE -352 384 -352 336
WIRE -208 448 -208 416
WIRE -208 480 -208 448
WIRE -208 624 -208 560
FLAG -352 384 0
FLAG -208 624 0
FLAG -208 448 clk
FLAG -144 144 clk
FLAG 224 144 clk
FLAG 608 144 clk
FLAG 864 112 c3
SYMBOL 74hct107 -48 32 R0
SYMATTR InstName U1
SYMBOL 74hct107 320 32 R0
SYMATTR InstName U2
SYMBOL 74hct107 704 32 R0
SYMATTR InstName U3
SYMBOL voltage -352 240 R0
WINDOW 123 0 0 Left 2
WINDOW 39 0 0 Left 2
SYMATTR InstName V2
SYMATTR Value 5
SYMBOL voltage -208 464 R0
WINDOW 123 0 0 Left 2
WINDOW 39 0 0 Left 2
SYMATTR InstName V3
SYMATTR Value PULSE(0 5 0 1p 1p 1u 2u)
SYMBOL 74hct08 496 -48 R0
SYMATTR InstName U4
TEXT 1016 296 Left 2 !.tran 8u
TEXT 936 -200 Left 2 !.include 74hct.lib
