Version 4
SHEET 1 1716 680
WIRE -400 -176 -400 -208
WIRE 176 -80 48 -80
WIRE 720 -80 592 -80
WIRE 48 -64 48 -80
WIRE 592 -64 592 -80
WIRE -400 -48 -400 -96
WIRE -592 0 -592 -48
WIRE 176 112 128 112
WIRE 720 112 688 112
WIRE -592 128 -592 80
WIRE 96 144 32 144
WIRE 176 144 96 144
WIRE 688 144 688 112
WIRE 720 144 688 144
WIRE -400 176 -400 144
WIRE 96 176 96 144
WIRE 176 176 96 176
WIRE 688 176 688 144
WIRE 720 176 688 176
WIRE 128 208 128 112
WIRE 176 208 128 208
WIRE 672 208 608 208
WIRE 720 208 672 208
WIRE 32 240 32 144
WIRE 96 240 96 176
WIRE 176 240 96 240
WIRE 192 240 176 240
WIRE 608 240 608 208
WIRE 688 240 688 176
WIRE 720 240 688 240
WIRE 128 272 128 208
WIRE 176 272 128 272
WIRE 672 272 672 208
WIRE 720 272 672 272
WIRE -400 304 -400 256
WIRE 128 304 128 272
WIRE 176 304 128 304
WIRE 672 304 672 272
WIRE 720 304 672 304
WIRE 96 336 96 240
WIRE 176 336 96 336
WIRE 672 336 672 304
WIRE 720 336 672 336
WIRE 32 352 32 320
WIRE 128 352 128 304
WIRE 128 352 32 352
WIRE 608 352 608 320
WIRE 688 352 688 240
WIRE 688 352 608 352
WIRE 32 384 32 352
WIRE 608 384 608 352
FLAG -400 -208 A0
FLAG -592 -48 A1
FLAG -400 144 Cin
FLAG -400 -48 0
FLAG -592 128 0
FLAG -400 304 0
FLAG 176 -48 A0
FLAG 176 -16 A1
FLAG 176 16 Cin
FLAG 720 16 Cin
FLAG 720 -16 A1
FLAG 32 384 0
FLAG 608 384 0
FLAG 368 208 Sum
FLAG 368 240 Sum_Bar
FLAG 912 208 Carry
FLAG 912 240 Carry_Bar
FLAG 48 -64 0
FLAG 592 -64 0
FLAG 720 -48 A0
SYMBOL 74hct151 272 -144 R0
SYMATTR InstName U1
SYMBOL 74hct151 816 -144 R0
SYMATTR InstName U2
SYMBOL voltage -592 -16 R0
WINDOW 123 0 0 Left 0
WINDOW 39 0 0 Left 0
SYMATTR InstName V1
SYMATTR Value PULSE(5 0 0 1p 1p 2u 4u)
SYMBOL voltage -400 160 R0
WINDOW 123 0 0 Left 0
WINDOW 39 0 0 Left 0
SYMATTR InstName V2
SYMATTR Value PULSE(5 0 0 1p 1p 4u 8u)
SYMBOL voltage -400 -192 R0
WINDOW 123 0 0 Left 0
WINDOW 39 0 0 Left 0
SYMATTR InstName V3
SYMATTR Value PULSE(5 0 0 1p 1p 1u 2u)
SYMBOL voltage 32 224 R0
WINDOW 123 0 0 Left 0
WINDOW 39 0 0 Left 0
SYMATTR InstName V4
SYMATTR Value 5
SYMBOL voltage 608 224 R0
WINDOW 123 0 0 Left 0
WINDOW 39 0 0 Left 0
SYMATTR InstName V5
SYMATTR Value 5
TEXT -424 392 Left 2 !.tran 8u
TEXT 312 -376 Left 2 !.include 74hct.lib
TEXT 328 -320 Left 2 ;Full Adder MUX
