Version 4
SHEET 1 2260 680
WIRE -160 -64 -160 -96
WIRE 592 32 528 32
WIRE 1568 32 1504 32
WIRE -160 64 -160 16
WIRE 864 64 528 64
WIRE 1840 64 1504 64
WIRE 864 96 528 96
WIRE 1840 96 1504 96
WIRE -352 112 -352 64
WIRE 976 112 976 80
WIRE 1952 112 1952 80
WIRE 736 128 528 128
WIRE 1088 128 1072 128
WIRE 1712 128 1504 128
WIRE 2064 128 2032 128
WIRE 800 160 528 160
WIRE 1776 160 1504 160
WIRE 800 176 800 160
WIRE 864 176 800 176
WIRE 1776 176 1776 160
WIRE 1840 176 1776 176
WIRE 224 192 160 192
WIRE 336 192 224 192
WIRE 720 192 528 192
WIRE 976 192 976 144
WIRE 1200 192 1136 192
WIRE 1312 192 1200 192
WIRE 1696 192 1504 192
WIRE 1952 192 1952 144
WIRE 864 208 800 208
WIRE 1840 208 1776 208
WIRE 224 224 224 192
WIRE 336 224 224 224
WIRE 704 224 528 224
WIRE 1200 224 1200 192
WIRE 1312 224 1200 224
WIRE 1680 224 1504 224
WIRE -352 240 -352 192
WIRE 160 240 160 192
WIRE 1136 240 1136 192
WIRE 672 256 528 256
WIRE 800 256 800 208
WIRE 800 256 672 256
WIRE 1648 256 1504 256
WIRE 1776 256 1776 208
WIRE 1776 256 1648 256
WIRE -160 288 -160 256
WIRE 736 320 736 128
WIRE 1712 320 1712 128
WIRE 336 336 336 256
WIRE 864 336 848 336
WIRE 1312 336 1312 256
WIRE 1840 336 1824 336
WIRE 720 352 720 192
WIRE 736 352 720 352
WIRE 1696 352 1696 192
WIRE 1712 352 1696 352
WIRE 864 368 864 336
WIRE 896 368 864 368
WIRE 1840 368 1840 336
WIRE 1872 368 1840 368
WIRE 2144 384 2096 384
WIRE 896 400 864 400
WIRE 1872 400 1840 400
WIRE -160 416 -160 368
WIRE 704 432 704 224
WIRE 736 432 704 432
WIRE 1680 432 1680 224
WIRE 1712 432 1680 432
WIRE 864 448 864 400
WIRE 864 448 848 448
WIRE 1840 448 1840 400
WIRE 1840 448 1824 448
WIRE 336 464 336 416
WIRE 672 464 672 256
WIRE 736 464 672 464
WIRE 1312 464 1312 416
WIRE 1648 464 1648 256
WIRE 1712 464 1648 464
FLAG 160 240 0
FLAG -160 -96 A0
FLAG -352 64 A1
FLAG -160 256 Cin
FLAG -160 64 0
FLAG -352 240 0
FLAG -160 416 0
FLAG 336 32 A0
FLAG 336 64 A1
FLAG 336 96 Cin
FLAG 336 464 0
FLAG 1088 128 Sum
FLAG 1008 384 Carry
FLAG 1136 240 0
FLAG 1312 32 A0
FLAG 1312 64 A1
FLAG 1312 96 Cin
FLAG 1312 464 0
FLAG 2144 128 Sum1
FLAG 2144 384 Carry1
SYMBOL 74hct138 432 -32 R0
SYMATTR InstName U1
SYMBOL voltage -352 96 R0
WINDOW 123 0 0 Left 0
WINDOW 39 0 0 Left 0
SYMATTR InstName V1
SYMATTR Value PULSE(5 0 0 1p 1p 2u 4u)
SYMBOL voltage -160 272 R0
WINDOW 123 0 0 Left 0
WINDOW 39 0 0 Left 0
SYMATTR InstName V2
SYMATTR Value PULSE(5 0 0 1p 1p 4u 8u)
SYMBOL voltage -160 -80 R0
WINDOW 123 0 0 Left 0
WINDOW 39 0 0 Left 0
SYMATTR InstName V3
SYMATTR Value PULSE(5 0 0 1p 1p 1u 2u)
SYMBOL voltage 336 320 R0
WINDOW 123 0 0 Left 0
WINDOW 39 0 0 Left 0
SYMATTR InstName V4
SYMATTR Value 5
SYMBOL 74hct00 912 16 R0
SYMATTR InstName U2
SYMBOL 74hct00 912 128 R0
SYMATTR InstName U3
SYMBOL 74hct00 784 272 R0
SYMATTR InstName U5
SYMBOL 74hct00 784 384 R0
SYMATTR InstName U6
SYMBOL 74hct32 944 320 R0
SYMATTR InstName U4
SYMBOL 74hct32 1024 64 R0
SYMATTR InstName U7
SYMBOL 74hct138 1408 -32 R0
SYMATTR InstName U8
SYMBOL voltage 1312 320 R0
WINDOW 123 0 0 Left 0
WINDOW 39 0 0 Left 0
SYMATTR InstName V5
SYMATTR Value 5
SYMBOL 74hct08 1888 16 R0
SYMATTR InstName U9
SYMBOL 74hct08 1888 128 R0
SYMATTR InstName U10
SYMBOL 74hct08 1760 272 R0
SYMATTR InstName U11
SYMBOL 74hct08 1760 384 R0
SYMATTR InstName U12
SYMBOL 74hct08 1920 320 R0
SYMATTR InstName U13
SYMBOL 74hct08 2000 64 R0
SYMATTR InstName U14
SYMBOL 74hct04 2080 64 R0
SYMATTR InstName U15
SYMBOL 74hct04 2032 320 R0
SYMATTR InstName U16
TEXT -184 504 Left 2 !.tran 8u
TEXT 632 -248 Left 2 !.include 74hct.lib
TEXT 664 -192 Left 2 ;Full Adder
