Version 4
SHEET 1 1164 680
WIRE -624 -96 -624 -128
WIRE -16 -16 -144 -16
WIRE -144 0 -144 -16
WIRE -624 32 -624 -16
WIRE -816 80 -816 32
WIRE -16 176 -48 176
WIRE -816 208 -816 160
WIRE -48 208 -48 176
WIRE -16 208 -48 208
WIRE -48 240 -48 208
WIRE -16 240 -48 240
WIRE -624 256 -624 224
WIRE -64 272 -128 272
WIRE -16 272 -64 272
WIRE -128 304 -128 272
WIRE -48 304 -48 240
WIRE -16 304 -48 304
WIRE -64 336 -64 272
WIRE -16 336 -64 336
WIRE -64 368 -64 336
WIRE -16 368 -64 368
WIRE -624 384 -624 336
WIRE -64 400 -64 368
WIRE -16 400 -64 400
WIRE -128 416 -128 384
WIRE -48 416 -48 304
WIRE -48 416 -128 416
WIRE -128 448 -128 416
FLAG -624 -128 A0
FLAG -816 32 A1
FLAG -624 224 A2
FLAG -624 32 0
FLAG -816 208 0
FLAG -624 384 0
FLAG -16 80 A2
FLAG -16 48 A1
FLAG -128 448 0
FLAG 176 272 F
FLAG 176 304 F_Bar
FLAG -144 0 0
FLAG -16 16 A0
SYMBOL 74hct151 80 -80 R0
SYMATTR InstName U2
SYMBOL voltage -816 64 R0
WINDOW 123 0 0 Left 0
WINDOW 39 0 0 Left 0
SYMATTR InstName V1
SYMATTR Value PULSE(5 0 0 1p 1p 2u 4u)
SYMBOL voltage -624 240 R0
WINDOW 123 0 0 Left 0
WINDOW 39 0 0 Left 0
SYMATTR InstName V2
SYMATTR Value PULSE(5 0 0 1p 1p 4u 8u)
SYMBOL voltage -624 -112 R0
WINDOW 123 0 0 Left 0
WINDOW 39 0 0 Left 0
SYMATTR InstName V3
SYMATTR Value PULSE(5 0 0 1p 1p 1u 2u)
SYMBOL voltage -128 288 R0
WINDOW 123 0 0 Left 0
WINDOW 39 0 0 Left 0
SYMATTR InstName V4
SYMATTR Value 5
TEXT -648 472 Left 2 !.tran 8u
TEXT -160 -264 Left 2 !.include 74hct.lib
TEXT -176 -200 Left 2 ;Majority Circuit MUX
