Version 4
SHEET 1 880 680
WIRE -528 -112 -528 -144
WIRE -528 16 -528 -32
WIRE -720 64 -720 16
WIRE 448 80 160 80
WIRE 448 96 448 80
WIRE 464 96 448 96
WIRE 592 112 576 112
WIRE 464 128 448 128
WIRE -144 144 -208 144
WIRE -32 144 -144 144
WIRE 448 144 448 128
WIRE 448 144 160 144
WIRE 592 144 592 112
WIRE 624 144 592 144
WIRE -144 176 -144 144
WIRE -32 176 -144 176
WIRE 464 176 160 176
WIRE 624 176 592 176
WIRE -720 192 -720 144
WIRE -208 192 -208 144
WIRE 384 208 160 208
WIRE 464 208 464 176
WIRE 592 224 592 176
WIRE 592 224 576 224
WIRE -528 240 -528 208
WIRE 384 240 384 208
WIRE 464 240 384 240
WIRE -32 288 -32 208
WIRE -528 368 -528 320
WIRE -32 416 -32 368
FLAG -208 192 0
FLAG -528 -144 A0
FLAG -720 16 A1
FLAG -528 208 A2
FLAG -528 16 0
FLAG -720 192 0
FLAG -528 368 0
FLAG -32 -16 A0
FLAG -32 16 A1
FLAG -32 48 A2
FLAG -32 416 0
FLAG 736 160 F
SYMBOL 74hct138 64 -80 R0
SYMATTR InstName U1
SYMBOL voltage -720 48 R0
WINDOW 123 0 0 Left 0
WINDOW 39 0 0 Left 0
SYMATTR InstName V1
SYMATTR Value PULSE(5 0 0 1p 1p 2u 4u)
SYMBOL voltage -528 224 R0
WINDOW 123 0 0 Left 0
WINDOW 39 0 0 Left 0
SYMATTR InstName V2
SYMATTR Value PULSE(5 0 0 1p 1p 4u 8u)
SYMBOL voltage -528 -128 R0
WINDOW 123 0 0 Left 0
WINDOW 39 0 0 Left 0
SYMATTR InstName V3
SYMATTR Value PULSE(5 0 0 1p 1p 1u 2u)
SYMBOL voltage -32 272 R0
WINDOW 123 0 0 Left 0
WINDOW 39 0 0 Left 0
SYMATTR InstName V4
SYMATTR Value 5
SYMBOL 74hct00 512 48 R0
SYMATTR InstName U4
SYMBOL 74hct00 512 160 R0
SYMATTR InstName U5
SYMBOL 74hct32 672 96 R0
SYMATTR InstName U6
TEXT -552 456 Left 2 !.tran 8u
TEXT 248 -112 Left 2 !.include 74hct.lib
TEXT 264 -72 Left 2 ;Majority Circuit
