Version 4
SHEET 1 880 680
WIRE -368 -32 -368 -64
WIRE 384 64 320 64
WIRE -368 96 -368 48
WIRE 384 96 320 96
WIRE 384 128 320 128
WIRE -560 144 -560 96
WIRE 384 160 320 160
WIRE 384 192 320 192
WIRE 16 224 -48 224
WIRE 128 224 16 224
WIRE 384 224 320 224
WIRE 16 256 16 224
WIRE 128 256 16 256
WIRE 384 256 320 256
WIRE -560 272 -560 224
WIRE -48 272 -48 224
WIRE 384 288 320 288
WIRE -368 320 -368 288
WIRE 128 368 128 288
WIRE -368 448 -368 400
WIRE 128 496 128 448
FLAG -48 272 0
FLAG -368 -64 A0
FLAG -560 96 A1
FLAG -368 288 A2
FLAG -368 96 0
FLAG -560 272 0
FLAG -368 448 0
FLAG 128 64 A0
FLAG 128 96 A1
FLAG 128 128 A2
FLAG 128 496 0
SYMBOL 74hct138 224 0 R0
SYMATTR InstName U1
SYMBOL voltage -560 128 R0
WINDOW 123 0 0 Left 0
WINDOW 39 0 0 Left 0
SYMATTR InstName V2
SYMATTR Value PULSE(5 0 0 1p 1p 2u 4u)
SYMBOL voltage -368 304 R0
WINDOW 123 0 0 Left 0
WINDOW 39 0 0 Left 0
SYMATTR InstName V3
SYMATTR Value PULSE(5 0 0 1p 1p 4u 8u)
SYMBOL voltage -368 -48 R0
WINDOW 123 0 0 Left 0
WINDOW 39 0 0 Left 0
SYMATTR InstName V1
SYMATTR Value PULSE(5 0 0 1p 1p 1u 2u)
SYMBOL voltage 128 352 R0
WINDOW 123 0 0 Left 0
WINDOW 39 0 0 Left 0
SYMATTR InstName V4
SYMATTR Value 5
TEXT -394 536 Left 2 !.tran 8u
TEXT 408 -32 Left 2 !.include 74hct.lib
