Version 4
SHEET 1 1024 700
WIRE -128 -160 -176 -160
WIRE 48 -144 -16 -144
WIRE -128 -128 -176 -128
WIRE 48 -96 48 -144
WIRE 112 -96 48 -96
WIRE 112 -64 64 -64
WIRE -128 -32 -176 -32
WIRE 64 -16 64 -64
WIRE 64 -16 -16 -16
WIRE -128 0 -176 0
WIRE 224 48 224 -80
WIRE 272 48 224 48
WIRE 480 64 384 64
WIRE 272 80 224 80
WIRE -128 112 -176 112
WIRE 224 128 224 80
WIRE 224 128 -16 128
WIRE -128 144 -176 144
WIRE -96 336 -192 336
WIRE 208 352 16 352
WIRE -96 368 -192 368
WIRE -192 384 -192 368
WIRE 208 416 208 352
WIRE 208 448 80 448
WIRE -96 464 -192 464
WIRE 80 480 80 448
WIRE 80 480 16 480
WIRE -96 496 -192 496
WIRE -192 512 -192 496
WIRE -96 592 -192 592
WIRE 208 608 208 480
WIRE 208 608 16 608
WIRE -96 624 -192 624
WIRE -192 640 -192 624
FLAG -720 -80 0
FLAG -720 80 0
FLAG -720 240 0
FLAG -720 -160 A
FLAG -720 0 B
FLAG -720 160 C
FLAG -176 -160 A
FLAG -176 -128 B
FLAG -176 -32 B
FLAG -176 0 C
FLAG -176 112 C
FLAG -176 144 A
FLAG 480 64 F1
FLAG -192 336 A
FLAG -192 384 B
FLAG -192 464 B
FLAG -192 512 C
FLAG -192 592 C
FLAG -192 640 A
FLAG 320 448 F2
SYMBOL voltage -720 -176 R0
WINDOW 123 0 0 Left 0
WINDOW 39 0 0 Left 0
SYMATTR InstName V1
SYMATTR Value PULSE(5 0 0 1p 1p 1u 2u)
SYMBOL voltage -720 -16 R0
WINDOW 123 0 0 Left 0
WINDOW 39 0 0 Left 0
SYMATTR InstName V2
SYMATTR Value PULSE(5 0 0 1p 1p 2u 4u)
SYMBOL voltage -720 144 R0
WINDOW 123 0 0 Left 0
WINDOW 39 0 0 Left 0
SYMATTR InstName V3
SYMATTR Value PULSE(5 0 0 1p 1p 4u 8u)
SYMBOL 74hct08 -80 -208 R0
SYMATTR InstName U1
SYMBOL 74hct08 -80 -80 R0
SYMATTR InstName U2
SYMBOL 74hct08 -80 64 R0
SYMATTR InstName U3
SYMBOL 74hct32 160 -144 R0
SYMATTR InstName U4
SYMBOL 74hct32 320 0 R0
SYMATTR InstName U5
SYMBOL 74hct00 -48 288 R0
SYMATTR InstName U6
SYMBOL 74hct00 -48 416 R0
SYMATTR InstName U7
SYMBOL 74hct00 -48 544 R0
SYMATTR InstName U8
SYMBOL 74hct10 256 368 R0
SYMATTR InstName U9
TEXT 112 -240 Left 2 !.INCLUDE 74hct.lib
TEXT -744 304 Left 2 !.tran 8u
TEXT 672 -32 Left 2 ;Anantha Sai Satwik Vysyaraju
TEXT 752 8 Left 2 ;2019A3PS1323H
