Version 4
SHEET 1 1944 808
WIRE 912 -240 672 -240
WIRE 112 -80 112 -160
WIRE -16 -16 -16 -80
WIRE 912 -16 672 -16
WIRE -16 0 -16 -16
WIRE 1040 48 1040 -16
WIRE 1040 48 960 48
WIRE 672 64 672 -16
WIRE 1072 80 1072 -16
WIRE 1072 80 960 80
WIRE -112 112 -112 48
WIRE 848 112 848 64
WIRE 848 112 800 112
WIRE -112 128 -112 112
WIRE 672 128 672 96
WIRE 688 128 672 128
WIRE 848 144 800 144
WIRE 1040 160 1040 48
WIRE 1040 160 960 160
WIRE 848 176 848 144
WIRE 560 192 560 80
WIRE 560 192 464 192
WIRE 1104 192 1104 -16
WIRE 1104 192 960 192
WIRE -224 256 -224 192
WIRE 560 256 560 192
WIRE 912 256 560 256
WIRE 944 256 912 256
WIRE -224 272 -224 256
WIRE 816 288 720 288
WIRE 880 288 816 288
WIRE 976 288 880 288
WIRE 816 320 816 288
WIRE 880 320 880 288
WIRE 912 320 912 256
WIRE 944 320 944 256
WIRE 976 320 976 288
WIRE 1040 320 1040 160
WIRE 1072 320 1072 80
WIRE 1104 320 1104 192
WIRE 1136 320 1136 -16
WIRE 944 624 944 544
WIRE 976 624 976 544
WIRE 1008 624 1008 544
WIRE 1040 624 1040 544
FLAG 112 -160 A1
FLAG 112 0 0
FLAG -16 -80 A2
FLAG -16 64 0
FLAG -112 48 A3
FLAG -112 192 0
FLAG -224 192 A4
FLAG -224 336 0
FLAG 1232 -240 A1
FLAG 1200 -240 A2
FLAG 1168 -240 A3
FLAG 1136 -240 A4
FLAG 672 -240 0
FLAG 1072 -240 A1
FLAG 1040 -240 A2
FLAG 1008 -240 A3
FLAG 976 -240 A4
FLAG 720 288 0
FLAG 1040 624 s1
FLAG 1008 624 s2
FLAG 976 624 s3
FLAG 944 624 s4
FLAG 464 192 carry
SYMBOL 74hct283 1296 -128 R90
SYMATTR InstName U1
SYMBOL voltage 112 -96 R0
WINDOW 123 0 0 Left 0
WINDOW 39 0 0 Left 0
SYMATTR InstName V1
SYMATTR Value PULSE(5 0 0 1p 1p 1u 2u)
SYMBOL voltage -16 -32 R0
WINDOW 123 0 0 Left 0
WINDOW 39 0 0 Left 0
SYMATTR InstName V2
SYMATTR Value PULSE(5 0 0 1p 1p 2u 4u)
SYMBOL voltage -112 96 R0
WINDOW 123 0 0 Left 0
WINDOW 39 0 0 Left 0
SYMATTR InstName V3
SYMATTR Value PULSE(5 0 0 1p 1p 4u 8u)
SYMBOL voltage -224 240 R0
WINDOW 123 0 0 Left 0
WINDOW 39 0 0 Left 0
SYMATTR InstName V4
SYMATTR Value PULSE(5 0 0 1p 1p 8u 16u)
SYMBOL 74hct283 1200 432 R90
SYMATTR InstName U2
SYMBOL 74hct08 912 128 R180
SYMATTR InstName U3
SYMBOL 74hct08 912 240 R180
SYMATTR InstName U4
SYMBOL 74hct32 752 192 R180
SYMATTR InstName U5
SYMBOL 74hct32 624 144 R180
SYMATTR InstName U6
TEXT 888 -408 Left 2 !.include 74hct.lib
TEXT -24 520 Left 2 !.tran 10u
TEXT 1312 -336 Left 2 ;Anantha Sai Satwik Vysyaraju
TEXT 1384 -280 Left 2 ;2019A3PS1323H
TEXT 1496 -160 Left 2 ;BCD ADDER
