Version 4
SHEET 1 1048 768
WIRE -384 -320 -384 -400
WIRE -512 -256 -512 -320
WIRE -512 -240 -512 -256
WIRE -608 -128 -608 -192
WIRE -608 -112 -608 -128
WIRE -720 16 -720 -48
WIRE -720 32 -720 16
WIRE 432 64 368 64
WIRE -208 96 -320 96
WIRE 432 96 368 96
WIRE -80 112 -96 112
WIRE -208 128 -288 128
WIRE -80 128 -80 112
WIRE 144 128 -80 128
WIRE 432 128 368 128
WIRE 144 160 -32 160
WIRE 432 160 368 160
WIRE 144 192 32 192
WIRE -208 208 -320 208
WIRE -32 224 -32 160
WIRE -32 224 -96 224
WIRE 144 224 112 224
WIRE -288 240 -288 128
WIRE -208 240 -288 240
WIRE -912 288 -912 224
WIRE 432 288 368 288
WIRE -912 304 -912 288
WIRE -512 320 -512 256
WIRE -208 320 -224 320
WIRE -512 336 -512 320
WIRE 32 336 32 192
WIRE 32 336 -96 336
WIRE -288 352 -288 240
WIRE -208 352 -288 352
WIRE -208 432 -320 432
WIRE 112 448 112 224
WIRE 112 448 -96 448
WIRE -288 464 -288 352
WIRE -208 464 -288 464
WIRE -288 528 -288 464
WIRE 144 528 144 288
WIRE 144 528 -288 528
WIRE -288 608 -288 528
FLAG -384 -400 A1
FLAG -384 -240 0
FLAG -512 -320 A2
FLAG -512 -176 0
FLAG -608 -192 A3
FLAG -608 -48 0
FLAG -720 -48 A4
FLAG -720 96 0
FLAG -512 256 M
FLAG -512 400 0
FLAG -288 608 M
FLAG -224 320 b
FLAG -912 224 b
FLAG -912 368 0
FLAG 144 -32 A1
FLAG 144 0 A2
FLAG 144 32 A3
FLAG 144 64 A4
FLAG 432 64 s1
FLAG 432 96 s2
FLAG 432 128 s3
FLAG 432 160 s4
FLAG 432 288 carry
FLAG -320 96 0
FLAG -320 208 0
FLAG -320 432 0
SYMBOL 74hct283 256 -96 R0
SYMATTR InstName U1
SYMBOL 74hct86 -160 48 R0
SYMATTR InstName U2
SYMBOL 74hct86 -160 160 R0
SYMATTR InstName U3
SYMBOL 74hct86 -160 272 R0
SYMATTR InstName U4
SYMBOL 74hct86 -160 384 R0
SYMATTR InstName U5
SYMBOL voltage -384 -336 R0
WINDOW 123 0 0 Left 0
WINDOW 39 0 0 Left 0
SYMATTR InstName V1
SYMATTR Value PULSE(5 0 0 1p 1p 1u 2u)
SYMBOL voltage -512 -272 R0
WINDOW 123 0 0 Left 0
WINDOW 39 0 0 Left 0
SYMATTR InstName V2
SYMATTR Value PULSE(5 0 0 1p 1p 2u 4u)
SYMBOL voltage -608 -144 R0
WINDOW 123 0 0 Left 0
WINDOW 39 0 0 Left 0
SYMATTR InstName V3
SYMATTR Value PULSE(5 0 0 1p 1p 4u 8u)
SYMBOL voltage -720 0 R0
WINDOW 123 0 0 Left 0
WINDOW 39 0 0 Left 0
SYMATTR InstName V4
SYMATTR Value PULSE(5 0 0 1p 1p 8u 16u)
SYMBOL voltage -512 304 R0
WINDOW 123 0 0 Left 0
WINDOW 39 0 0 Left 0
SYMATTR InstName V5
SYMATTR Value 0
SYMBOL voltage -912 272 R0
WINDOW 123 0 0 Left 0
WINDOW 39 0 0 Left 0
SYMATTR InstName V6
SYMATTR Value 5
TEXT 48 -416 Left 2 !.include 74hct.lib
TEXT -1008 520 Left 2 !.tran 16u
TEXT 368 -320 Left 2 ;Anantha Sai Satwik Vysyaraju
TEXT 432 -288 Left 2 ;2019A3PS1323H
TEXT 392 -232 Left 2 ;4 BIT ADDER SUBTRACTOR
TEXT -720 480 Left 2 ;M is 0 for addition  (logic 0)
TEXT -720 520 Left 2 ;M is 5 for subtraction (logic 1)
