Version 4
SHEET 1 1084 704
WIRE 208 -80 208 -160
WIRE 80 -16 80 -80
WIRE 80 0 80 -16
WIRE 1008 96 944 96
WIRE -16 112 -16 48
WIRE -16 128 -16 112
WIRE 1008 128 944 128
WIRE 1008 160 944 160
WIRE 1008 192 944 192
WIRE -128 256 -128 192
WIRE -128 272 -128 256
WIRE 416 304 416 240
WIRE 416 320 416 304
WIRE 1008 320 944 320
FLAG 208 -160 A1
FLAG 208 0 0
FLAG 80 -80 A2
FLAG 80 64 0
FLAG -16 48 A3
FLAG -16 192 0
FLAG -128 192 A4
FLAG -128 336 0
FLAG 416 240 b
FLAG 416 384 0
FLAG 720 0 A1
FLAG 720 32 A2
FLAG 720 64 A3
FLAG 720 96 A4
FLAG 1008 96 s1
FLAG 1008 128 s2
FLAG 1008 160 s3
FLAG 1008 192 s4
FLAG 1008 320 carry
FLAG 720 320 0
FLAG 720 160 A1
FLAG 720 192 A2
FLAG 720 224 A3
FLAG 720 256 A4
SYMBOL 74hct283 832 -64 R0
SYMATTR InstName U1
SYMBOL voltage 208 -96 R0
WINDOW 123 0 0 Left 0
WINDOW 39 0 0 Left 0
SYMATTR InstName V1
SYMATTR Value PULSE(5 0 0 1p 1p 1u 2u)
SYMBOL voltage 80 -32 R0
WINDOW 123 0 0 Left 0
WINDOW 39 0 0 Left 0
SYMATTR InstName V2
SYMATTR Value PULSE(5 0 0 1p 1p 2u 4u)
SYMBOL voltage -16 96 R0
WINDOW 123 0 0 Left 0
WINDOW 39 0 0 Left 0
SYMATTR InstName V3
SYMATTR Value PULSE(5 0 0 1p 1p 4u 8u)
SYMBOL voltage -128 240 R0
WINDOW 123 0 0 Left 0
WINDOW 39 0 0 Left 0
SYMATTR InstName V4
SYMATTR Value PULSE(5 0 0 1p 1p 8u 16u)
SYMBOL voltage 416 288 R0
WINDOW 123 0 0 Left 0
WINDOW 39 0 0 Left 0
SYMATTR InstName V6
SYMATTR Value 5
TEXT 624 -384 Left 2 !.include 74hct.lib
TEXT 320 464 Left 2 !.tran 16u
