Version 4
SHEET 1 880 724
WIRE -592 -128 -624 -128
WIRE -592 -96 -608 -96
WIRE -480 -64 -480 -112
WIRE -464 -64 -480 -64
WIRE -656 -48 -672 -48
WIRE -624 -48 -624 -128
WIRE -624 -48 -656 -48
WIRE -592 -48 -624 -48
WIRE -352 -48 -368 -48
WIRE -112 -48 -352 -48
WIRE -16 -48 -112 -48
WIRE -592 -32 -592 -48
WIRE -464 -32 -480 -32
WIRE -624 -16 -672 -16
WIRE -608 -16 -608 -96
WIRE -608 -16 -624 -16
WIRE -592 -16 -608 -16
WIRE -480 -16 -480 -32
WIRE 176 -16 144 -16
WIRE -592 0 -592 -16
WIRE 176 16 160 16
WIRE 288 48 288 0
WIRE 304 48 288 48
WIRE -16 64 -16 -48
WIRE 112 64 -16 64
WIRE 144 64 144 -16
WIRE 144 64 112 64
WIRE 176 64 144 64
WIRE 416 64 400 64
WIRE 464 64 416 64
WIRE 176 80 176 64
WIRE 304 80 288 80
WIRE 144 96 -48 96
WIRE 160 96 160 16
WIRE 160 96 144 96
WIRE 176 96 160 96
WIRE 288 96 288 80
WIRE 176 112 176 96
WIRE -656 128 -656 -48
WIRE -128 128 -656 128
WIRE -624 160 -624 -16
WIRE -160 160 -624 160
WIRE 112 160 112 64
WIRE 240 160 112 160
WIRE 384 176 352 176
WIRE 144 192 144 96
WIRE 240 192 144 192
WIRE 384 240 384 176
WIRE 464 240 384 240
WIRE 464 272 288 272
WIRE -128 288 -128 128
WIRE -64 288 -128 288
WIRE 208 304 48 304
WIRE 288 304 288 272
WIRE 288 304 208 304
WIRE -160 320 -160 160
WIRE -64 320 -160 320
FLAG -672 -48 A
FLAG -672 -16 B
FLAG 208 304 Cout1_new
FLAG -112 -48 S1_
FLAG 384 176 Cout2_new
FLAG 464 64 sum_new
FLAG -48 96 Cin
FLAG 576 256 Cout_new
FLAG -976 224 0
FLAG -864 464 0
FLAG -976 144 A
FLAG -864 384 B
FLAG -704 592 0
FLAG -704 512 Cin
SYMBOL 74hct86 512 192 R0
SYMATTR InstName U1
SYMBOL 74hct08 288 112 R0
SYMATTR InstName U2
SYMBOL 74hct08 -16 240 R0
SYMATTR InstName U3
SYMBOL 74hct08 -416 -112 R0
SYMATTR InstName U4
SYMBOL 74hct32 -544 -176 R0
SYMATTR InstName U5
SYMBOL 74hct00 -544 -80 R0
SYMATTR InstName U6
SYMBOL 74hct08 352 0 R0
SYMATTR InstName U7
SYMBOL 74hct32 224 -64 R0
SYMATTR InstName U8
SYMBOL 74hct00 224 32 R0
SYMATTR InstName U9
SYMBOL voltage -976 128 R0
WINDOW 3 75 -72 VRight 2
WINDOW 123 0 0 Left 0
WINDOW 39 0 0 Left 0
SYMATTR Value PULSE(5 0 0 1p 1p 1u 2u)
SYMATTR InstName V1
SYMBOL voltage -864 368 R0
WINDOW 3 75 -72 VRight 2
WINDOW 123 0 0 Left 0
WINDOW 39 0 0 Left 0
SYMATTR Value PULSE(5 0 0 1p 1p 2u 4u)
SYMATTR InstName V2
SYMBOL voltage -704 496 R0
WINDOW 3 75 -72 VRight 2
WINDOW 123 0 0 Left 0
WINDOW 39 0 0 Left 0
SYMATTR Value PULSE(5 0 0 1p 1p 4u 8u)
SYMATTR InstName V3
TEXT 200 -176 Left 2 !.include 74hct.lib
TEXT -1008 600 Left 2 !.tran 8u
