Version 4
SHEET 1 1096 680
WIRE 16 80 0 80
WIRE 48 80 16 80
WIRE 368 96 160 96
WIRE 464 96 368 96
WIRE 48 112 0 112
WIRE 16 176 16 80
WIRE 352 176 16 176
WIRE 464 192 464 96
WIRE 480 192 464 192
WIRE 512 192 480 192
WIRE 48 208 48 112
WIRE 320 208 48 208
WIRE 832 208 624 208
WIRE 512 224 432 224
WIRE 480 288 480 192
WIRE 608 288 480 288
WIRE 512 320 512 224
WIRE 608 320 512 320
WIRE 832 368 832 304
WIRE 912 368 832 368
WIRE 912 400 736 400
WIRE 352 416 352 176
WIRE 416 416 352 416
WIRE 656 432 640 432
WIRE 736 432 736 400
WIRE 736 432 656 432
WIRE 320 448 320 208
WIRE 416 448 320 448
FLAG -176 160 0
FLAG -64 400 0
FLAG -176 80 A
FLAG -64 320 B
FLAG 0 80 A
FLAG 0 112 B
FLAG 656 432 Cout1
FLAG 368 96 S1
FLAG 832 304 Cout2
FLAG 832 208 sum
FLAG 96 528 0
FLAG 96 448 Cin
FLAG 432 224 Cin
FLAG 1024 384 Cout
SYMBOL 74hct86 96 32 R0
SYMATTR InstName U1
SYMBOL 74hct00 464 368 R0
SYMATTR InstName U2
SYMBOL 74hct04 576 368 R0
SYMATTR InstName U3
SYMBOL voltage -176 64 R0
WINDOW 3 75 -72 VRight 2
WINDOW 123 0 0 Left 0
WINDOW 39 0 0 Left 0
SYMATTR InstName V1
SYMATTR Value PULSE(5 0 0 1p 1p 1u 2u)
SYMBOL voltage -64 304 R0
WINDOW 3 75 -72 VRight 2
WINDOW 123 0 0 Left 0
WINDOW 39 0 0 Left 0
SYMATTR InstName V2
SYMATTR Value PULSE(5 0 0 1p 1p 2u 4u)
SYMBOL 74hct86 560 144 R0
SYMATTR InstName U4
SYMBOL 74hct00 656 240 R0
SYMATTR InstName U5
SYMBOL 74hct04 768 240 R0
SYMATTR InstName U6
SYMBOL voltage 96 432 R0
WINDOW 3 75 -72 VRight 2
WINDOW 123 0 0 Left 0
WINDOW 39 0 0 Left 0
SYMATTR InstName V3
SYMATTR Value PULSE(5 0 0 1p 1p 4u 8u)
SYMBOL 74hct86 960 320 R0
SYMATTR InstName U7
TEXT 448 24 Left 2 !.include 74hct.lib
TEXT -210 536 Left 2 !.tran 8u
TEXT 848 56 Left 2 ;.include 74hct.lib
