Version 4
SHEET 1 992 856
WIRE -32 96 -64 96
WIRE 64 96 -32 96
WIRE 320 96 64 96
WIRE 64 160 64 96
WIRE 96 160 64 160
WIRE 320 176 208 176
WIRE -32 192 -64 192
WIRE 64 192 -32 192
WIRE 96 192 64 192
WIRE 64 272 64 192
WIRE 96 272 64 272
WIRE 320 288 208 288
WIRE -32 304 -64 304
WIRE 64 304 -32 304
WIRE 96 304 64 304
WIRE 64 384 64 304
WIRE 96 384 64 384
WIRE 320 400 208 400
WIRE -32 416 -64 416
WIRE 96 416 -32 416
FLAG -544 144 0
FLAG -544 64 B0
FLAG -448 400 0
FLAG -448 320 B1
FLAG -272 592 0
FLAG -272 512 B2
FLAG -32 416 B0
FLAG -32 304 B1
FLAG -32 192 B2
FLAG -32 96 B3
FLAG 320 96 G3
FLAG 320 176 G2
FLAG 320 288 G1
FLAG 320 400 G0
FLAG -144 768 0
FLAG -144 688 B3
SYMBOL 74hct86 144 112 R0
SYMATTR InstName U1
SYMBOL 74hct86 144 224 R0
SYMATTR InstName U2
SYMBOL 74hct86 144 336 R0
SYMATTR InstName U3
SYMBOL voltage -544 48 R0
WINDOW 3 -57 180 VLeft 2
WINDOW 123 0 0 Left 0
WINDOW 39 0 0 Left 0
SYMATTR Value PULSE(5 0 0 1p 1p 1u 2u)
SYMATTR InstName V1
SYMBOL voltage -448 304 R0
WINDOW 3 -57 180 VLeft 2
WINDOW 123 0 0 Left 0
WINDOW 39 0 0 Left 0
SYMATTR Value PULSE(5 0 0 1p 1p 2u 4u)
SYMATTR InstName V2
SYMBOL voltage -272 496 R0
WINDOW 3 -57 180 VLeft 2
WINDOW 123 0 0 Left 0
WINDOW 39 0 0 Left 0
SYMATTR Value PULSE(5 0 0 1p 1p 4u 8u)
SYMATTR InstName V3
SYMBOL voltage -144 672 R0
WINDOW 3 -57 180 VLeft 2
WINDOW 123 0 0 Left 0
WINDOW 39 0 0 Left 0
SYMATTR Value PULSE(5 0 0 1p 1p 8u 16u)
SYMATTR InstName V4
TEXT -616 680 Left 2 !.tran 16u
TEXT 176 -56 Left 2 !.INCLUDE 74HCT.LIB
TEXT 640 40 Left 2 ;Anantha Sai Satwik Vysyaraju
TEXT 696 96 Left 2 ;2019A3PS1323H
TEXT 672 152 Left 2 ;PROB 1: GRAY CODE
