Version 4
SHEET 1 1600 936
WIRE 464 -64 416 -64
WIRE 608 -48 576 -48
WIRE 464 -32 416 -32
WIRE 608 0 608 -48
WIRE 624 0 608 0
WIRE 768 16 736 16
WIRE 624 32 560 32
WIRE 768 48 768 16
WIRE 800 48 768 48
WIRE 816 48 800 48
WIRE 800 80 752 80
WIRE 752 144 752 80
WIRE 448 320 400 320
WIRE 592 336 560 336
WIRE 448 352 400 352
WIRE 592 384 592 336
WIRE 608 384 592 384
WIRE 752 400 720 400
WIRE 608 416 544 416
WIRE 752 432 752 400
WIRE 784 432 752 432
WIRE 800 432 784 432
WIRE 784 464 736 464
WIRE 736 528 736 464
FLAG 64 160 0
FLAG 64 80 A
FLAG 160 416 0
FLAG 160 336 B
FLAG 336 608 0
FLAG 336 528 C
FLAG 400 320 A
FLAG 400 352 B
FLAG 544 416 C
FLAG 896 448 FE
FLAG 752 224 0
FLAG 416 -64 A
FLAG 416 -32 B
FLAG 560 32 C
FLAG 912 64 FO
FLAG 736 608 0
FLAG 752 80 VO
FLAG 736 464 VE
SYMBOL 74hct86 496 272 R0
SYMATTR InstName U1
SYMBOL 74hct86 656 336 R0
SYMATTR InstName U2
SYMBOL 74hct86 832 384 R0
SYMATTR InstName U3
SYMBOL voltage 64 64 R0
WINDOW 3 -57 180 VLeft 2
WINDOW 123 0 0 Left 0
WINDOW 39 0 0 Left 0
SYMATTR Value PULSE(5 0 0 1p 1p 1u 2u)
SYMATTR InstName V1
SYMBOL voltage 160 320 R0
WINDOW 3 -57 180 VLeft 2
WINDOW 123 0 0 Left 0
WINDOW 39 0 0 Left 0
SYMATTR Value PULSE(5 0 0 1p 1p 2u 4u)
SYMATTR InstName V2
SYMBOL voltage 336 512 R0
WINDOW 3 -57 180 VLeft 2
WINDOW 123 0 0 Left 0
WINDOW 39 0 0 Left 0
SYMATTR Value PULSE(5 0 0 1p 1p 4u 8u)
SYMATTR InstName V3
SYMBOL 74hct86 512 -112 R0
SYMATTR InstName U4
SYMBOL 74hct86 672 -48 R0
SYMATTR InstName U5
SYMBOL 74hct86 848 0 R0
SYMATTR InstName U6
SYMBOL voltage 752 128 R0
WINDOW 3 -49 58 VLeft 2
WINDOW 123 0 0 Left 0
WINDOW 39 0 0 Left 0
SYMATTR Value 0
SYMATTR InstName V5
SYMBOL voltage 736 512 R0
WINDOW 3 -49 58 VLeft 2
WINDOW 123 0 0 Left 0
WINDOW 39 0 0 Left 0
SYMATTR Value 5
SYMATTR InstName V4
TEXT 376 -208 Left 2 !.INCLUDE 74HCT.LIB
TEXT -8 696 Left 2 !.tran 8u
TEXT 912 -72 Left 2 ;odd parity
TEXT 936 360 Left 2 ;even parity
