Version 4
SHEET 1 2668 680
WIRE 80 -48 -176 -48
WIRE 608 -48 80 -48
WIRE 1968 -32 1088 -32
WIRE 336 16 304 16
WIRE -32 32 -112 32
WIRE -16 32 -32 32
WIRE 192 32 176 32
WIRE 304 32 304 16
WIRE 304 32 192 32
WIRE 496 32 448 32
WIRE 512 32 496 32
WIRE 720 32 704 32
WIRE 736 32 720 32
WIRE 336 48 304 48
WIRE 1088 48 1088 -32
WIRE 1136 48 1088 48
WIRE 1152 48 1136 48
WIRE 1680 48 1536 48
WIRE 1728 48 1680 48
WIRE -176 64 -176 -48
WIRE -176 64 -320 64
WIRE 1392 64 1344 64
WIRE 1488 64 1392 64
WIRE 1936 64 1920 64
WIRE 1968 64 1968 -32
WIRE 1968 64 1936 64
WIRE -320 96 -320 64
WIRE 192 96 176 96
WIRE 224 96 192 96
WIRE 784 96 704 96
WIRE 1152 96 1056 96
WIRE 1728 96 1632 96
WIRE 1392 128 1344 128
WIRE 1536 128 1536 48
WIRE 1536 128 1392 128
WIRE 1936 128 1920 128
WIRE 1968 128 1936 128
WIRE 1136 144 1088 144
WIRE 1152 144 1136 144
WIRE 1488 144 1488 64
WIRE 1680 144 1488 144
WIRE 1728 144 1680 144
WIRE -176 176 -176 64
WIRE 80 176 -176 176
WIRE 608 176 80 176
WIRE -320 208 -320 176
WIRE -112 224 -112 32
WIRE 224 224 224 96
WIRE 224 224 -112 224
WIRE 304 224 304 48
WIRE 736 224 736 32
WIRE 736 224 304 224
WIRE 1248 224 1248 208
WIRE 1552 224 1248 224
WIRE 1824 224 1824 208
WIRE 1824 224 1552 224
WIRE 1088 240 1088 144
WIRE 1968 240 1968 128
WIRE 1968 240 1088 240
WIRE 1552 272 1552 224
WIRE 1552 384 1552 352
WIRE 912 448 912 384
WIRE 912 560 912 528
FLAG -320 208 0
FLAG 912 560 0
FLAG 912 384 clk
FLAG -16 64 clk
FLAG 512 64 clk
FLAG 192 32 B_d
FLAG 720 32 A_d
FLAG 1552 384 0
FLAG 1056 96 clk
FLAG 1632 96 clk
FLAG 1392 64 B_jk
FLAG 1392 128 Bbar_jk
FLAG 1936 64 A_jk
FLAG 1936 128 ABar_jk
FLAG 192 96 Bbar_d
FLAG 784 96 ABar_d
FLAG -32 32 DB
FLAG 496 32 DA
FLAG 1136 48 JB
FLAG 1136 144 KB
FLAG 1680 48 JA
FLAG 1680 144 KA
SYMBOL voltage -320 80 R0
WINDOW 123 0 0 Left 0
WINDOW 39 0 0 Left 0
SYMATTR InstName V1
SYMATTR Value 5
SYMBOL voltage 912 432 R0
WINDOW 3 -196 58 Top 2
WINDOW 123 0 0 Left 0
WINDOW 39 0 0 Left 0
SYMATTR Value PULSE(5 0 0 1p 1p 1u 2u)
SYMATTR InstName V2
SYMBOL 74hct74 80 -48 R0
SYMATTR InstName U1
SYMBOL 74hct74 608 -48 R0
SYMATTR InstName U2
SYMBOL 74hct107 1248 -16 R0
SYMATTR InstName U4
SYMBOL 74hct107 1824 -16 R0
SYMATTR InstName U5
SYMBOL voltage 1552 256 R0
WINDOW 123 0 0 Left 0
WINDOW 39 0 0 Left 0
SYMATTR InstName V3
SYMATTR Value 5
SYMBOL 74hct86 384 -32 R0
SYMATTR InstName U3
TEXT 864 -168 Left 2 !.tran 8u
TEXT 792 -280 Left 2 !.include 74hct.lib
TEXT 208 -120 Left 2 ;D FLIP FLOP
TEXT 1456 -128 Left 2 ;JK FLIP FLOP
TEXT 224 -168 Left 2 ;PROBLEM 1
TEXT 1464 -176 Left 2 ;PROBLEM 2
